Version 4
SHEET 1 4852 2500
WIRE 176 -96 144 -96
WIRE 144 -64 144 -96
WIRE -640 16 -672 16
WIRE -544 16 -640 16
WIRE -368 16 -544 16
WIRE -1264 48 -1264 32
WIRE -1264 48 -1584 48
WIRE -544 48 -544 16
WIRE -368 48 -368 16
WIRE 144 64 144 16
WIRE 304 64 144 64
WIRE -1584 80 -1584 48
WIRE -1264 80 -1264 48
WIRE 144 96 144 64
WIRE 304 160 304 64
WIRE -544 176 -544 128
WIRE -368 176 -368 128
WIRE -64 176 -368 176
WIRE 96 176 -64 176
WIRE -1264 192 -1264 144
WIRE -1584 208 -1584 160
WIRE -368 208 -368 176
WIRE 144 208 144 192
WIRE 208 208 144 208
WIRE -688 224 -768 224
WIRE -592 224 -624 224
WIRE -576 224 -592 224
WIRE 144 224 144 208
WIRE 208 240 208 208
WIRE -1616 256 -1632 256
WIRE -592 288 -592 224
WIRE -416 288 -592 288
WIRE -1632 304 -1632 256
WIRE -544 304 -544 272
WIRE -1632 320 -1632 304
WIRE -368 320 -368 304
WIRE -304 320 -368 320
WIRE 144 320 144 304
WIRE 208 320 208 304
WIRE 208 320 144 320
WIRE 304 320 304 224
WIRE 304 320 208 320
WIRE -1584 336 -1584 304
WIRE -368 336 -368 320
WIRE -304 352 -304 320
WIRE 144 352 144 320
WIRE -1200 384 -1200 352
WIRE -544 432 -544 384
WIRE -544 432 -656 432
WIRE -368 432 -368 416
WIRE -368 432 -544 432
WIRE -304 432 -304 416
WIRE -304 432 -368 432
WIRE -208 432 -208 304
WIRE -208 432 -304 432
WIRE -656 448 -656 432
WIRE -1584 464 -1584 416
WIRE -1200 512 -1200 464
WIRE -1408 528 -1408 512
WIRE -1408 656 -1408 608
WIRE -976 672 -976 640
WIRE -976 800 -976 752
FLAG -1408 656 0
FLAG -1264 192 0
FLAG -1264 32 Alim
FLAG -768 224 IN
IOPIN -768 224 In
FLAG -640 16 Alim
FLAG -656 448 0
FLAG -64 176 CTRL0
FLAG 144 352 0
FLAG 176 -96 Alim
FLAG -1200 512 0
FLAG -976 800 0
FLAG -1584 464 0
FLAG -1632 304 Vref
FLAG -1408 512 IN
IOPIN -1408 512 In
SYMBOL Misc\\signal -1408 512 R0
WINDOW 123 0 0 Left 2
WINDOW 39 0 0 Left 2
SYMATTR InstName V1
SYMATTR Value SINE(0 1 1K 0.1 0 0 100)
SYMBOL Misc\\cell -1264 80 R0
SYMATTR InstName V2
SYMATTR Value 9
SYMBOL cap -688 240 R270
WINDOW 0 32 32 VTop 2
WINDOW 3 0 32 VBottom 2
SYMATTR InstName C3
SYMATTR Value 22µ
SYMBOL pot2 -544 224 R0
SYMATTR InstName U1
SYMATTR SpiceLine Rtot=100 wiper={Vref_pot}
SYMBOL res -560 32 R0
SYMATTR InstName R8
SYMATTR Value 680
SYMBOL res -560 288 R0
SYMATTR InstName R9
SYMATTR Value 220
SYMBOL nmos -416 208 R0
SYMATTR InstName M2
SYMATTR Value ntd4815nh
SYMATTR Prefix X
SYMBOL res -384 32 R0
SYMATTR InstName R10
SYMATTR Value 570
SYMBOL res -352 432 R180
WINDOW 0 36 76 Left 2
WINDOW 3 36 40 Left 2
SYMATTR InstName R1
SYMATTR Value 50
SYMBOL cap -320 352 R0
SYMATTR InstName C1
SYMATTR Value 400µ
SYMBOL polcap -224 240 R0
SYMATTR InstName C2
SYMATTR Value 22µ
SYMBOL nmos 96 96 R0
SYMATTR InstName M1
SYMATTR Value ntd4815nh
SYMATTR Prefix X
SYMBOL res 128 -80 R0
SYMATTR InstName R2
SYMATTR Value 10k
SYMBOL res 160 320 R180
WINDOW 0 36 76 Left 2
WINDOW 3 36 40 Left 2
SYMATTR InstName R3
SYMATTR Value 50
SYMBOL cap 192 240 R0
SYMATTR InstName C4
SYMATTR Value 400µ
SYMBOL polcap 288 160 R0
SYMATTR InstName C5
SYMATTR Value 22µ
SYMBOL Misc\\signal -1200 368 R0
WINDOW 123 0 0 Left 2
WINDOW 39 0 0 Left 2
SYMATTR InstName V3
SYMBOL Misc\\signal -976 656 R0
WINDOW 123 0 0 Left 2
WINDOW 39 0 0 Left 2
SYMATTR InstName V4
SYMATTR Value SINE(0 5 1)
SYMBOL pot2 -1584 256 R0
SYMATTR InstName U2
SYMATTR SpiceLine Rtot=5k wiper={Vref_pot}
SYMBOL res -1600 64 R0
SYMATTR InstName R4
SYMATTR Value 7.4k
SYMBOL res -1600 320 R0
SYMATTR InstName R5
SYMATTR Value 7.4k
TEXT -1432 -168 Left 2 !.inc E:\\Projets perso\\Electronic\\Noise Gate\\mos.sub
TEXT -1434 -88 Left 2 !.tran 0 0.3 0
TEXT -792 496 Left 2 ;CTRL0 = 0 ssi IN > Vref, CTRL = Alim - eps sinon
TEXT -736 528 Left 2 ;Vref modifiable avec le potard
TEXT -1432 -136 Left 2 !.inc E:\\Projets perso\\Electronic\\Noise Gate\\pot.sub
TEXT -752 -80 Left 2 !.step param Vref_pot 0 1 0.1
TEXT -736 -48 Left 2 ;.param Vref_pot 0.5
RECTANGLE Normal 4848 2496 -2192 -944 2
RECTANGLE Normal -144 -16 -832 544 2
