Version 4
SHEET 1 1040 884
WIRE -1680 -640 -1712 -640
WIRE -1584 -640 -1680 -640
WIRE -1408 -640 -1584 -640
WIRE -1584 -608 -1584 -640
WIRE -1408 -608 -1408 -640
WIRE -1584 -480 -1584 -528
WIRE -1408 -480 -1408 -528
WIRE -1232 -480 -1408 -480
WIRE -1136 -480 -1232 -480
WIRE -1408 -448 -1408 -480
WIRE -1824 -432 -1840 -432
WIRE -1728 -432 -1824 -432
WIRE -1632 -432 -1664 -432
WIRE -1616 -432 -1632 -432
WIRE -1632 -368 -1632 -432
WIRE -1456 -368 -1632 -368
WIRE -1584 -352 -1584 -384
WIRE -1584 -240 -1584 -272
WIRE -1584 -240 -1696 -240
WIRE -1408 -240 -1408 -352
WIRE -1408 -240 -1584 -240
WIRE -384 -240 -512 -240
WIRE -288 -240 -384 -240
WIRE -1696 -224 -1696 -240
WIRE -512 -208 -512 -240
WIRE -384 -208 -384 -240
WIRE -384 -112 -384 -128
WIRE -32 -112 -384 -112
WIRE -384 -96 -384 -112
WIRE -752 -16 -768 -16
WIRE -656 -16 -752 -16
WIRE -512 -16 -512 -128
WIRE -512 -16 -592 -16
WIRE -432 -16 -512 -16
WIRE -32 16 -32 -112
WIRE -1264 48 -1264 32
WIRE -1264 48 -1408 48
WIRE -384 48 -384 0
WIRE -272 48 -384 48
WIRE -1408 64 -1408 48
WIRE -1136 64 -1136 32
WIRE -512 64 -512 -16
WIRE -1264 80 -1264 48
WIRE -384 80 -384 48
WIRE -272 80 -272 48
WIRE -1408 176 -1408 144
WIRE -1264 192 -1264 144
WIRE -1136 192 -1136 144
WIRE -512 224 -512 144
WIRE -512 224 -704 224
WIRE -384 224 -384 160
WIRE -384 224 -512 224
WIRE -272 224 -272 144
WIRE -272 224 -384 224
WIRE -32 224 -32 96
WIRE -32 224 -272 224
WIRE -704 256 -704 224
WIRE -1408 288 -1408 256
FLAG -752 -16 IN
IOPIN -752 -16 In
FLAG -288 -240 Alim
FLAG -704 256 0
FLAG -1136 192 0
FLAG -1136 32 IN
FLAG -1264 192 0
FLAG -1264 32 Alim
FLAG -1408 288 0
FLAG -32 -112 CTRL
FLAG -1824 -432 IN
IOPIN -1824 -432 In
FLAG -1680 -640 Alim
FLAG -1696 -224 0
FLAG -1232 -480 CTRL0
SYMBOL nmos -432 -96 R0
SYMATTR InstName M1
SYMATTR Value ntd4815nh
SYMATTR Prefix X
SYMBOL res -400 64 R0
SYMATTR InstName R1
SYMATTR Value 0.1
SYMBOL cap -288 80 R0
SYMATTR InstName C1
SYMATTR Value 0.1n
SYMBOL res -400 -224 R0
SYMATTR InstName R2
SYMATTR Value 900
SYMBOL res -528 -224 R0
SYMATTR InstName R3
SYMATTR Value 10k
SYMBOL res -528 48 R0
SYMATTR InstName R4
SYMATTR Value 10k
SYMBOL cap -656 0 R270
WINDOW 0 32 32 VTop 2
WINDOW 3 0 32 VBottom 2
SYMATTR InstName C2
SYMATTR Value 22µ
SYMBOL res -48 0 R0
SYMATTR InstName R5
SYMATTR Value 100k
SYMBOL Misc\\signal -1136 48 R0
SYMATTR InstName V1
SYMBOL Misc\\cell -1264 80 R0
SYMATTR InstName V2
SYMATTR Value 5
SYMBOL res -1424 48 R0
SYMATTR InstName R15
SYMATTR Value 10k
SYMBOL res -1424 160 R0
SYMATTR InstName R16
SYMATTR Value 10k
SYMBOL cap -1728 -416 R270
WINDOW 0 32 32 VTop 2
WINDOW 3 0 32 VBottom 2
SYMATTR InstName C3
SYMATTR Value 22µ
SYMBOL pot2 -1584 -432 R0
SYMATTR InstName U1
SYMATTR SpiceLine Rtot=5k wiper=0.5
SYMBOL res -1600 -624 R0
SYMATTR InstName R8
SYMATTR Value 7.4k
SYMBOL res -1600 -368 R0
SYMATTR InstName R9
SYMATTR Value 7.4k
SYMBOL nmos -1456 -448 R0
SYMATTR InstName M2
SYMATTR Value ntd4815nh
SYMATTR Prefix X
SYMBOL res -1424 -624 R0
SYMATTR InstName R10
SYMATTR Value 1k
TEXT -792 -352 Left 2 !.inc E:\\Projets perso\\Electronic\\Noise Gate\\mos.sub
TEXT -1170 280 Left 2 !.tran 0 0.033 0.03
TEXT 40 -104 Left 2 ;CTRL = 0 ssi IN > Vref, CTRL = Alim - eps sinon
TEXT 112 -72 Left 2 ;Vref modifiable en jouant sur R3 et R4
TEXT -792 -320 Left 2 !.inc E:\\Projets perso\\Electronic\\Noise Gate\\pot.sub
