Version 4
SHEET 1 4852 2500
WIRE -16 -64 -48 -64
WIRE -16 -32 -16 -64
WIRE -640 16 -672 16
WIRE -544 16 -640 16
WIRE -368 16 -544 16
WIRE -1264 48 -1264 32
WIRE -1264 48 -1408 48
WIRE -544 48 -544 16
WIRE -368 48 -368 16
WIRE -1408 64 -1408 48
WIRE -1136 64 -1136 32
WIRE -1264 80 -1264 48
WIRE -16 80 -16 48
WIRE 64 80 -16 80
WIRE 208 80 144 80
WIRE 320 80 208 80
WIRE 352 80 320 80
WIRE -16 96 -16 80
WIRE 208 112 208 80
WIRE -1408 176 -1408 144
WIRE -544 176 -544 128
WIRE -368 176 -368 128
WIRE -176 176 -368 176
WIRE -64 176 -176 176
WIRE -1264 192 -1264 144
WIRE -1136 192 -1136 144
WIRE -368 208 -368 176
WIRE -784 224 -800 224
WIRE -688 224 -784 224
WIRE -592 224 -624 224
WIRE -576 224 -592 224
WIRE -16 224 -16 192
WIRE -16 224 -48 224
WIRE 208 224 208 176
WIRE 208 224 -16 224
WIRE -48 256 -48 224
WIRE -1408 288 -1408 256
WIRE -592 288 -592 224
WIRE -416 288 -592 288
WIRE -544 304 -544 272
WIRE -368 320 -368 304
WIRE -304 320 -368 320
WIRE -368 336 -368 320
WIRE -304 352 -304 320
WIRE -544 432 -544 384
WIRE -544 432 -656 432
WIRE -368 432 -368 416
WIRE -368 432 -544 432
WIRE -304 432 -304 416
WIRE -304 432 -368 432
WIRE -656 448 -656 432
FLAG -1136 192 0
FLAG -1136 32 IN
FLAG -1264 192 0
FLAG -1264 32 Alim
FLAG -1408 288 0
FLAG -784 224 IN
IOPIN -784 224 In
FLAG -640 16 Alim
FLAG -656 448 0
FLAG -176 176 CTRL0
FLAG -48 256 0
FLAG -48 -64 Alim
FLAG 320 80 CTRL
SYMBOL Misc\\signal -1136 48 R0
SYMATTR InstName V1
SYMBOL Misc\\cell -1264 80 R0
SYMATTR InstName V2
SYMATTR Value 5
SYMBOL res -1424 48 R0
SYMATTR InstName R15
SYMATTR Value 10k
SYMBOL res -1424 160 R0
SYMATTR InstName R16
SYMATTR Value 10k
SYMBOL cap -688 240 R270
WINDOW 0 32 32 VTop 2
WINDOW 3 0 32 VBottom 2
SYMATTR InstName C3
SYMATTR Value 22µ
SYMBOL pot2 -544 224 R0
SYMATTR InstName U1
SYMATTR SpiceLine Rtot=5k wiper={Vref_pot}
SYMBOL res -560 32 R0
SYMATTR InstName R8
SYMATTR Value 7.4k
SYMBOL res -560 288 R0
SYMATTR InstName R9
SYMATTR Value 7.4k
SYMBOL nmos -416 208 R0
SYMATTR InstName M2
SYMATTR Value ntd4815nh
SYMATTR Prefix X
SYMBOL res -384 32 R0
SYMATTR InstName R10
SYMATTR Value 1k
SYMBOL res -352 432 R180
WINDOW 0 36 76 Left 2
WINDOW 3 36 40 Left 2
SYMATTR InstName R1
SYMATTR Value 10
SYMBOL cap -320 352 R0
SYMATTR InstName C1
SYMATTR Value 400µ
SYMBOL nmos -64 96 R0
SYMATTR InstName M1
SYMATTR Value ntd4815nh
SYMATTR Prefix X
SYMBOL polcap 192 112 R0
SYMATTR InstName C2
SYMBOL res 48 96 R270
WINDOW 0 32 56 VTop 2
WINDOW 3 0 56 VBottom 2
SYMATTR InstName R2
SYMBOL res -32 -48 R0
SYMATTR InstName R3
TEXT -1432 -168 Left 2 !.inc E:\\Projets perso\\Electronic\\Noise Gate\\mos.sub
TEXT -1434 -88 Left 2 !.tran 0 0.033 0.03
TEXT -792 496 Left 2 ;CTRL0 = 0 ssi IN > Vref, CTRL = Alim - eps sinon
TEXT -736 528 Left 2 ;Vref modifiable avec le potard
TEXT -1432 -136 Left 2 !.inc E:\\Projets perso\\Electronic\\Noise Gate\\pot.sub
TEXT -752 -80 Left 2 !.step param Vref_pot 0 1 0.25
TEXT -112 304 Left 2 ;CTRL : Charge lente quand IN>Vref,
TEXT -96 336 Left 2 ;décharge rapide quand Vin < Vref
RECTANGLE Normal 4848 2496 -2192 -944 2
RECTANGLE Normal -224 544 -816 -32 2
RECTANGLE Normal 272 368 -112 -80 2
