Version 4
SHEET 1 4852 2500
WIRE -800 16 -832 16
WIRE -544 16 -800 16
WIRE -368 16 -544 16
WIRE -144 16 -368 16
WIRE 192 16 -144 16
WIRE 192 32 192 16
WIRE -1264 48 -1264 32
WIRE -1264 48 -1584 48
WIRE -1584 80 -1584 48
WIRE -1264 80 -1264 48
WIRE -144 112 -144 16
WIRE -544 144 -544 16
WIRE -368 144 -368 16
WIRE 192 144 192 112
WIRE 352 144 192 144
WIRE 480 144 352 144
WIRE 512 144 480 144
WIRE -1264 192 -1264 144
WIRE -1584 208 -1584 160
WIRE -144 224 -144 192
WIRE 16 224 -144 224
WIRE 144 224 16 224
WIRE -1616 256 -1632 256
WIRE -544 272 -544 224
WIRE -1632 304 -1632 256
WIRE -368 304 -368 224
WIRE -192 304 -368 304
WIRE -1632 320 -1632 304
WIRE -688 320 -768 320
WIRE -592 320 -624 320
WIRE -576 320 -592 320
WIRE -1584 336 -1584 304
WIRE 352 336 352 144
WIRE -592 384 -592 320
WIRE -416 384 -592 384
WIRE -144 384 -144 320
WIRE -80 384 -144 384
WIRE 16 384 16 224
WIRE -544 400 -544 368
WIRE -368 416 -368 400
WIRE -304 416 -368 416
WIRE 192 416 192 240
WIRE 256 416 192 416
WIRE -368 432 -368 416
WIRE -144 432 -144 384
WIRE 192 432 192 416
WIRE -304 448 -304 416
WIRE -80 448 -80 384
WIRE 256 448 256 416
WIRE -1584 464 -1584 416
WIRE -1376 464 -1376 432
WIRE -544 528 -544 480
WIRE -544 528 -800 528
WIRE -368 528 -368 512
WIRE -368 528 -544 528
WIRE -304 528 -304 512
WIRE -304 528 -368 528
WIRE -144 528 -144 512
WIRE -144 528 -304 528
WIRE -80 528 -80 512
WIRE -80 528 -144 528
WIRE 16 528 16 448
WIRE 16 528 -80 528
WIRE 192 528 192 512
WIRE 192 528 16 528
WIRE 256 528 256 512
WIRE 256 528 192 528
WIRE 352 528 352 400
WIRE 352 528 256 528
WIRE -800 544 -800 528
WIRE -1376 592 -1376 544
WIRE -1584 608 -1584 592
WIRE -1584 736 -1584 688
WIRE -1152 752 -1152 720
WIRE -1152 880 -1152 832
FLAG -1584 736 0
FLAG -1264 192 0
FLAG -1264 32 Alim
FLAG -768 320 IN
IOPIN -768 320 In
FLAG -800 16 Alim
FLAG -800 544 0
FLAG -1376 592 0
FLAG -1152 880 0
FLAG -1584 464 0
FLAG -1632 304 Vref
FLAG -1584 592 IN
IOPIN -1584 592 In
FLAG 480 144 CTRL
SYMBOL Misc\\signal -1584 592 R0
WINDOW 123 0 0 Left 2
WINDOW 39 0 0 Left 2
SYMATTR InstName V1
SYMATTR Value SINE(0 1 1K 0.1 0 0 100)
SYMBOL Misc\\cell -1264 80 R0
SYMATTR InstName V2
SYMATTR Value 9
SYMBOL cap -688 336 R270
WINDOW 0 32 32 VTop 2
WINDOW 3 0 32 VBottom 2
SYMATTR InstName C1
SYMATTR Value 22µ
SYMBOL pot2 -544 320 R0
SYMATTR InstName U1
SYMATTR SpiceLine Rtot=80 wiper={Vref_pot}
SYMBOL res -560 128 R0
SYMATTR InstName R2
SYMATTR Value 550
SYMBOL res -560 384 R0
SYMATTR InstName R1
SYMATTR Value 320
SYMBOL nmos -416 304 R0
SYMATTR InstName M2
SYMATTR Value ntd4815nh
SYMATTR Prefix X
SYMBOL res -384 128 R0
SYMATTR InstName R10
SYMATTR Value 570
SYMBOL res -352 528 R180
WINDOW 0 36 76 Left 2
WINDOW 3 36 40 Left 2
SYMATTR InstName R9
SYMATTR Value 50
SYMBOL cap -320 448 R0
SYMATTR InstName C3
SYMATTR Value 400µ
SYMBOL polcap 0 384 R0
SYMATTR InstName C2
SYMATTR Value 22µ
SYMBOL nmos 144 144 R0
SYMATTR InstName M1
SYMATTR Value ntd4815nh
SYMATTR Prefix X
SYMBOL res 176 16 R0
SYMATTR InstName R8
SYMATTR Value 10k
SYMBOL res 208 528 R180
WINDOW 0 36 76 Left 2
WINDOW 3 36 40 Left 2
SYMATTR InstName R3
SYMATTR Value 50
SYMBOL cap 240 448 R0
SYMATTR InstName C4
SYMATTR Value 400µ
SYMBOL polcap 336 336 R0
SYMATTR InstName C5
SYMATTR Value 22µ
SYMBOL Misc\\signal -1376 448 R0
WINDOW 123 0 0 Left 2
WINDOW 39 0 0 Left 2
SYMATTR InstName V3
SYMBOL Misc\\signal -1152 736 R0
WINDOW 123 0 0 Left 2
WINDOW 39 0 0 Left 2
SYMATTR InstName V4
SYMATTR Value SINE(0 5 1)
SYMBOL pot2 -1584 256 R0
SYMATTR InstName U2
SYMATTR SpiceLine Rtot=5k wiper={Vref_pot}
SYMBOL res -1600 64 R0
SYMATTR InstName R4
SYMATTR Value 7.4k
SYMBOL res -1600 320 R0
SYMATTR InstName R5
SYMATTR Value 7.4k
SYMBOL nmos -192 224 R0
SYMATTR InstName M3
SYMATTR Value ntd4815nh
SYMATTR Prefix X
SYMBOL res -128 528 R180
WINDOW 0 36 76 Left 2
WINDOW 3 36 40 Left 2
SYMATTR InstName R6
SYMATTR Value 50
SYMBOL res -160 96 R0
SYMATTR InstName R7
SYMATTR Value 570
SYMBOL cap -96 448 R0
SYMATTR InstName C6
SYMATTR Value 400µ
TEXT -1432 -168 Left 2 !.inc E:\\Projets perso\\Electronic\\Noise Gate\\mos.sub
TEXT -1434 -88 Left 2 !.tran 0 0.3 0
TEXT -1432 -136 Left 2 !.inc E:\\Projets perso\\Electronic\\Noise Gate\\pot.sub
TEXT -752 -80 Left 2 ;.step param Vref_pot 0 1 0.5
TEXT -736 -48 Left 2 !.param Vref_pot 0.5
TEXT -688 600 Left 2 ;A
TEXT -696 720 Left 2 ;A : Réglage de la valeur moyenne (règle la tension de seuil)
TEXT -432 600 Left 2 ;B
TEXT -192 600 Left 2 ;C
TEXT 128 600 Left 2 ;D
TEXT -696 752 Left 2 ;B : Détection de dépassement de la tension de seuil
TEXT -696 784 Left 2 ;C : Lissage du dépassement
TEXT -696 816 Left 2 ;D : Calcul de la tension de controle (proportionnelle à l'amplification à appliquée)
TEXT -696 880 Left 2 ;Choix des valeurs : \n- Fixer les valeurs du bloc B. \n- Repérer sa tension de commutation Vc.\n- Régler les valeurs de bloc A selon les critères :\n   >  Le diviseur de tension fourni une valeur V0. Le bloc B commute lorsque V0+IN < Vc.\n       Si on veut une commutation à tension d'entrée Ec, il faut :  V0 - Ec = Vc.\n       On choisi des R permettant d'obtenir les valeurs de V0 correspondantes au Ec désirés.\n   >  On ne veut pas couper les basses fréquences de l'instrument. Il faut donc limiter  R+R1.\n- Pour le bloc C : On doit assurer une décharge rapide du condensateur (<< impulsion en entrée de bloc)\net une charge plus lente (> impulsion). Néanmoins, il faut prendre en compte le fait que la charge lente\nacroit la latence avant fermeture de la noise-gate (décharge de CTRL).\n- Pou le bloc D : On assure une décharge rapide du condensateur (peut être immédiate), \net la possibilité d'une charge lente (durée de l'ouverture de porte).
TEXT -552 320 Left 2 ;R
TEXT 0 -136 Left 5 ;Contrôle de la porte
RECTANGLE Normal 4848 2496 -2192 -944 2
RECTANGLE Normal -480 -16 -704 624 2
RECTANGLE Normal -240 624 -448 -16 2
RECTANGLE Normal 80 624 -208 -16 2
RECTANGLE Normal 416 624 112 -16 2
RECTANGLE Normal 560 1264 -864 -192
